---- qbsp / ericw-tools v0.18.1 ----
Input file: C:\Users\kebabmaster\Desktop\Kolekcja\Unity stuff\BSP another test\Assets\maps/test1-compile.map
Output file: C:\Users\kebabmaster\Desktop\Kolekcja\Unity stuff\BSP another test\Assets\maps/test1.bsp

---- LoadMapFile ----
*** WARNING 05: No info_player_start entity in level
*** WARNING 06: No info_player_deathmatch entities in level
           36 faces
            6 brushes
            1 entities
            2 unique texnames
           12 texinfo

Opened WAD: C:/quake/tools/wads/Doom3_particles.wad
Processing hull 0...
---- Brush_LoadEntity ----
            6 brushes
           19 planes
---- CSGFaces ----
           36 brushfaces
           38 csgfaces
           38 mergedfaces
---- SolidBSP ----
           40 split nodes
            9 solid leafs
           32 empty leafs
            0 water leafs
            0 detail leafs
            0 detail illusionary leafs
            0 detail fence leafs
            0 illusionary visblocker leafs
           47 leaffaces
           47 nodefaces
---- Portalize ----
           32 vis leafs
           32 vis clusters
           83 vis portals
---- FillOutside ----
*** WARNING 19: No entities in empty space -- no filling performed (hull 0)
---- MakeFaceEdges ----
---- GrowRegions ----
Processing hull 1...
*** WARNING 19: No entities in empty space -- no filling performed (hull 1)
Processing hull 2...
*** WARNING 19: No entities in empty space -- no filling performed (hull 2)
---- WriteBSPFile ----
Wrote C:\Users\kebabmaster\Desktop\Kolekcja\Unity stuff\BSP another test\Assets\maps/test1.bsp
           51 planes             1020
           53 vertexes            636
           40 nodes              1760
           11 texinfo             440
           47 faces              1316
          129 clipnodes          1548
           33 leafs              1452
           47 marksurfaces        188
          188 surfedges           752
          103 edges               824
            2 textures          10972
              lightdata             0
              visdata               0
              entdata              97

0.004 seconds elapsed
Peak memory usage: 481120 (469.8k)
